256
 generated by VMD
 Ar       -9.790000       -9.783000       -9.790000
 Ar       -7.160000       -7.182000       -9.790000
 Ar       -7.160000       -9.783000       -7.160000
 Ar       -9.790000       -7.152000       -7.160000
 Ar       -9.790000       -9.783000       -4.140000
 Ar       -7.160000       -7.182000       -4.140000
 Ar       -7.160000       -9.783000       -1.510000
 Ar       -9.790000       -7.152000       -1.510000
 Ar       -9.790000       -4.132000       -9.790000
 Ar       -7.160000       -1.532000       -9.790000
 Ar       -7.160000       -4.132000       -7.160000
 Ar       -9.790000       -1.503000       -7.160000
 Ar       -9.790000       -4.132000       -4.140000
 Ar       -7.160000       -1.532000       -4.140000
 Ar       -7.160000       -4.132000       -1.510000
 Ar       -9.790000       -1.503000       -1.510000
 Ar       -4.140000       -9.783000       -9.790000
 Ar       -1.510000       -7.182000       -9.790000
 Ar       -1.510000       -9.783000       -7.160000
 Ar       -4.140000       -7.152000       -7.160000
 Ar       -4.140000       -9.783000       -4.140000
 Ar       -1.510000       -7.182000       -4.140000
 Ar       -1.510000       -9.783000       -1.510000
 Ar       -4.140000       -7.152000       -1.510000
 Ar       -4.140000       -4.132000       -9.790000
 Ar       -1.510000       -1.532000       -9.790000
 Ar       -1.510000       -4.132000       -7.160000
 Ar       -4.140000       -1.503000       -7.160000
 Ar       -4.140000       -4.132000       -4.140000
 Ar       -1.510000       -1.532000       -4.140000
 Ar       -1.510000       -4.132000       -1.510000
 Ar       -4.140000       -1.503000       -1.510000
 Ar       -9.790000       -9.783000        1.510000
 Ar       -7.160000       -7.182000        1.510000
 Ar       -7.160000       -9.783000        4.140000
 Ar       -9.790000       -7.152000        4.140000
 Ar       -9.790000       -9.783000        7.160000
 Ar       -7.160000       -7.182000        7.160000
 Ar       -7.160000       -9.783000        9.790000
 Ar       -9.790000       -7.152000        9.790000
 Ar       -9.790000       -4.132000        1.510000
 Ar       -7.160000       -1.532000        1.510000
 Ar       -7.160000       -4.132000        4.140000
 Ar       -9.790000       -1.503000        4.140000
 Ar       -9.790000       -4.132000        7.160000
 Ar       -7.160000       -1.532000        7.160000
 Ar       -7.160000       -4.132000        9.790000
 Ar       -9.790000       -1.503000        9.790000
 Ar       -4.140000       -9.783000        1.510000
 Ar       -1.510000       -7.182000        1.510000
 Ar       -1.510000       -9.783000        4.140000
 Ar       -4.140000       -7.152000        4.140000
 Ar       -4.140000       -9.783000        7.160000
 Ar       -1.510000       -7.182000        7.160000
 Ar       -1.510000       -9.783000        9.790000
 Ar       -4.140000       -7.152000        9.790000
 Ar       -4.140000       -4.132000        1.510000
 Ar       -1.510000       -1.532000        1.510000
 Ar       -1.510000       -4.132000        4.140000
 Ar       -4.140000       -1.503000        4.140000
 Ar       -4.140000       -4.132000        7.160000
 Ar       -1.510000       -1.532000        7.160000
 Ar       -1.510000       -4.132000        9.790000
 Ar       -4.140000       -1.503000        9.790000
 Ar       -9.790000        1.517000       -9.790000
 Ar       -7.160000        4.118000       -9.790000
 Ar       -7.160000        1.517000       -7.160000
 Ar       -9.790000        4.148000       -7.160000
 Ar       -9.790000        1.517000       -4.140000
 Ar       -7.160000        4.118000       -4.140000
 Ar       -7.160000        1.517000       -1.510000
 Ar       -9.790000        4.148000       -1.510000
 Ar       -9.790000        7.168000       -9.790000
 Ar       -7.160000        9.768000       -9.790000
 Ar       -7.160000        7.168000       -7.160000
 Ar       -9.790000        9.797000       -7.160000
 Ar       -9.790000        7.168000       -4.140000
 Ar       -7.160000        9.768000       -4.140000
 Ar       -7.160000        7.168000       -1.510000
 Ar       -9.790000        9.797000       -1.510000
 Ar       -4.140000        1.517000       -9.790000
 Ar       -1.510000        4.118000       -9.790000
 Ar       -1.510000        1.517000       -7.160000
 Ar       -4.140000        4.148000       -7.160000
 Ar       -4.140000        1.517000       -4.140000
 Ar       -1.510000        4.118000       -4.140000
 Ar       -1.510000        1.517000       -1.510000
 Ar       -4.140000        4.148000       -1.510000
 Ar       -4.140000        7.168000       -9.790000
 Ar       -1.510000        9.768000       -9.790000
 Ar       -1.510000        7.168000       -7.160000
 Ar       -4.140000        9.797000       -7.160000
 Ar       -4.140000        7.168000       -4.140000
 Ar       -1.510000        9.768000       -4.140000
 Ar       -1.510000        7.168000       -1.510000
 Ar       -4.140000        9.797000       -1.510000
 Ar       -9.790000        1.517000        1.510000
 Ar       -7.160000        4.118000        1.510000
 Ar       -7.160000        1.517000        4.140000
 Ar       -9.790000        4.148000        4.140000
 Ar       -9.790000        1.517000        7.160000
 Ar       -7.160000        4.118000        7.160000
 Ar       -7.160000        1.517000        9.790000
 Ar       -9.790000        4.148000        9.790000
 Ar       -9.790000        7.168000        1.510000
 Ar       -7.160000        9.768000        1.510000
 Ar       -7.160000        7.168000        4.140000
 Ar       -9.790000        9.797000        4.140000
 Ar       -9.790000        7.168000        7.160000
 Ar       -7.160000        9.768000        7.160000
 Ar       -7.160000        7.168000        9.790000
 Ar       -9.790000        9.797000        9.790000
 Ar       -4.140000        1.517000        1.510000
 Ar       -1.510000        4.118000        1.510000
 Ar       -1.510000        1.517000        4.140000
 Ar       -4.140000        4.148000        4.140000
 Ar       -4.140000        1.517000        7.160000
 Ar       -1.510000        4.118000        7.160000
 Ar       -1.510000        1.517000        9.790000
 Ar       -4.140000        4.148000        9.790000
 Ar       -4.140000        7.168000        1.510000
 Ar       -1.510000        9.768000        1.510000
 Ar       -1.510000        7.168000        4.140000
 Ar       -4.140000        9.797000        4.140000
 Ar       -4.140000        7.168000        7.160000
 Ar       -1.510000        9.768000        7.160000
 Ar       -1.510000        7.168000        9.790000
 Ar       -4.140000        9.797000        9.790000
 Ar        1.510000       -9.783000       -9.790000
 Ar        4.140000       -7.182000       -9.790000
 Ar        4.140000       -9.783000       -7.160000
 Ar        1.510000       -7.152000       -7.160000
 Ar        1.510000       -9.783000       -4.140000
 Ar        4.140000       -7.182000       -4.140000
 Ar        4.140000       -9.783000       -1.510000
 Ar        1.510000       -7.152000       -1.510000
 Ar        1.510000       -4.132000       -9.790000
 Ar        4.140000       -1.532000       -9.790000
 Ar        4.140000       -4.132000       -7.160000
 Ar        1.510000       -1.503000       -7.160000
 Ar        1.510000       -4.132000       -4.140000
 Ar        4.140000       -1.532000       -4.140000
 Ar        4.140000       -4.132000       -1.510000
 Ar        1.510000       -1.503000       -1.510000
 Ar        7.160000       -9.783000       -9.790000
 Ar        9.790000       -7.182000       -9.790000
 Ar        9.790000       -9.783000       -7.160000
 Ar        7.160000       -7.152000       -7.160000
 Ar        7.160000       -9.783000       -4.140000
 Ar        9.790000       -7.182000       -4.140000
 Ar        9.790000       -9.783000       -1.510000
 Ar        7.160000       -7.152000       -1.510000
 Ar        7.160000       -4.132000       -9.790000
 Ar        9.790000       -1.532000       -9.790000
 Ar        9.790000       -4.132000       -7.160000
 Ar        7.160000       -1.503000       -7.160000
 Ar        7.160000       -4.132000       -4.140000
 Ar        9.790000       -1.532000       -4.140000
 Ar        9.790000       -4.132000       -1.510000
 Ar        7.160000       -1.503000       -1.510000
 Ar        1.510000       -9.783000        1.510000
 Ar        4.140000       -7.182000        1.510000
 Ar        4.140000       -9.783000        4.140000
 Ar        1.510000       -7.152000        4.140000
 Ar        1.510000       -9.783000        7.160000
 Ar        4.140000       -7.182000        7.160000
 Ar        4.140000       -9.783000        9.790000
 Ar        1.510000       -7.152000        9.790000
 Ar        1.510000       -4.132000        1.510000
 Ar        4.140000       -1.532000        1.510000
 Ar        4.140000       -4.132000        4.140000
 Ar        1.510000       -1.503000        4.140000
 Ar        1.510000       -4.132000        7.160000
 Ar        4.140000       -1.532000        7.160000
 Ar        4.140000       -4.132000        9.790000
 Ar        1.510000       -1.503000        9.790000
 Ar        7.160000       -9.783000        1.510000
 Ar        9.790000       -7.182000        1.510000
 Ar        9.790000       -9.783000        4.140000
 Ar        7.160000       -7.152000        4.140000
 Ar        7.160000       -9.783000        7.160000
 Ar        9.790000       -7.182000        7.160000
 Ar        9.790000       -9.783000        9.790000
 Ar        7.160000       -7.152000        9.790000
 Ar        7.160000       -4.132000        1.510000
 Ar        9.790000       -1.532000        1.510000
 Ar        9.790000       -4.132000        4.140000
 Ar        7.160000       -1.503000        4.140000
 Ar        7.160000       -4.132000        7.160000
 Ar        9.790000       -1.532000        7.160000
 Ar        9.790000       -4.132000        9.790000
 Ar        7.160000       -1.503000        9.790000
 Ar        1.510000        1.517000       -9.790000
 Ar        4.140000        4.118000       -9.790000
 Ar        4.140000        1.517000       -7.160000
 Ar        1.510000        4.148000       -7.160000
 Ar        1.510000        1.517000       -4.140000
 Ar        4.140000        4.118000       -4.140000
 Ar        4.140000        1.517000       -1.510000
 Ar        1.510000        4.148000       -1.510000
 Ar        1.510000        7.168000       -9.790000
 Ar        4.140000        9.768000       -9.790000
 Ar        4.140000        7.168000       -7.160000
 Ar        1.510000        9.797000       -7.160000
 Ar        1.510000        7.168000       -4.140000
 Ar        4.140000        9.768000       -4.140000
 Ar        4.140000        7.168000       -1.510000
 Ar        1.510000        9.797000       -1.510000
 Ar        7.160000        1.517000       -9.790000
 Ar        9.790000        4.118000       -9.790000
 Ar        9.790000        1.517000       -7.160000
 Ar        7.160000        4.148000       -7.160000
 Ar        7.160000        1.517000       -4.140000
 Ar        9.790000        4.118000       -4.140000
 Ar        9.790000        1.517000       -1.510000
 Ar        7.160000        4.148000       -1.510000
 Ar        7.160000        7.168000       -9.790000
 Ar        9.790000        9.768000       -9.790000
 Ar        9.790000        7.168000       -7.160000
 Ar        7.160000        9.797000       -7.160000
 Ar        7.160000        7.168000       -4.140000
 Ar        9.790000        9.768000       -4.140000
 Ar        9.790000        7.168000       -1.510000
 Ar        7.160000        9.797000       -1.510000
 Ar        1.510000        1.517000        1.510000
 Ar        4.140000        4.118000        1.510000
 Ar        4.140000        1.517000        4.140000
 Ar        1.510000        4.148000        4.140000
 Ar        1.510000        1.517000        7.160000
 Ar        4.140000        4.118000        7.160000
 Ar        4.140000        1.517000        9.790000
 Ar        1.510000        4.148000        9.790000
 Ar        1.510000        7.168000        1.510000
 Ar        4.140000        9.768000        1.510000
 Ar        4.140000        7.168000        4.140000
 Ar        1.510000        9.797000        4.140000
 Ar        1.510000        7.168000        7.160000
 Ar        4.140000        9.768000        7.160000
 Ar        4.140000        7.168000        9.790000
 Ar        1.510000        9.797000        9.790000
 Ar        7.160000        1.517000        1.510000
 Ar        9.790000        4.118000        1.510000
 Ar        9.790000        1.517000        4.140000
 Ar        7.160000        4.148000        4.140000
 Ar        7.160000        1.517000        7.160000
 Ar        9.790000        4.118000        7.160000
 Ar        9.790000        1.517000        9.790000
 Ar        7.160000        4.148000        9.790000
 Ar        7.160000        7.168000        1.510000
 Ar        9.790000        9.768000        1.510000
 Ar        9.790000        7.168000        4.140000
 Ar        7.160000        9.797000        4.140000
 Ar        7.160000        7.168000        7.160000
 Ar        9.790000        9.768000        7.160000
 Ar        9.790000        7.168000        9.790000
 Ar        7.160000        9.797000        9.790000
